1
9
.tran 1m 5 4.9999
1
1
Net-(C4-Pad1)
V
